Version 4
SHEET 1 880 680
WIRE 256 -32 48 -32
WIRE 512 -32 256 -32
WIRE 256 0 256 -32
WIRE 48 16 48 -32
WIRE 256 112 256 80
WIRE 512 144 512 -32
WIRE 48 192 48 96
WIRE 208 192 48 192
WIRE 48 208 48 192
WIRE -112 288 -272 288
WIRE 0 288 -32 288
WIRE -272 320 -272 288
WIRE -272 448 -272 400
WIRE 48 448 48 304
WIRE 48 448 -272 448
WIRE 256 448 256 208
WIRE 256 448 48 448
WIRE 512 448 512 224
WIRE 512 448 256 448
WIRE -272 480 -272 448
FLAG -272 480 0
SYMBOL nmos 208 112 R0
SYMATTR InstName M1
SYMATTR Value Si2316DS
SYMBOL res 240 -16 R0
SYMATTR InstName R1
SYMATTR Value 30
SYMBOL res 32 0 R0
SYMATTR InstName R2
SYMATTR Value 10Meg
SYMBOL voltage 512 128 R0
WINDOW 123 0 0 Left 0
WINDOW 39 0 0 Left 0
SYMATTR InstName V1
SYMATTR Value 3
SYMBOL res -128 304 R270
WINDOW 0 32 56 VTop 2
WINDOW 3 0 56 VBottom 2
SYMATTR InstName R3
SYMATTR Value 200
SYMBOL voltage -272 304 R0
WINDOW 123 0 0 Left 0
WINDOW 39 0 0 Left 0
SYMATTR InstName V2
SYMATTR Value PULSE(0 3 5 1n 1n 1 2)
SYMBOL nmos 0 208 R0
SYMATTR InstName M2
SYMATTR Value Si2316DS
TEXT -306 504 Left 2 !.tran 10
